1
9
.tran 0.1 10{return}{return}
1
2
C1
I
